taxonomy_feeders/autotest/test_R2-25.00-1_NR.glm
// $Id: R2-25.00-1.glm 
// 24.9 kV feeder
//*********************************************
// validates voltages with FBS at selected load, node, meter, triplex_node, and
// triplex_meter objects

// written by: alek332
clock{
	timezone EST+8EDT;
	timestamp '2000-01-01 0:00:00';
	stoptime '2000-01-01 1:00:00';
} 

#set profiler=1 
//********************************************* 
// modules 
module assert;
module tape; 
module powerflow{ 
     solver_method NR; 
      default_maximum_voltage_error 1e-6;
}; 

//********************************************* 
object regulator:2048 { 
     name R2-25-00-1_reg_1; 
     from R2-25-00-1_node_324; 
     to R2-25-00-1_meter_73; 
     phases ABCN; 
     configuration regulator_configuration:2049; 
     object recorder { 
          property tap_A,tap_B,tap_C,power_in_A.real,power_in_A.imag,power_in_B.real,power_in_B.imag,power_in_C.real,power_in_C.imag,power_in.real,power_in.imag; 
          limit 1440; 
          interval 60; 
          file "R2-25.00-1_reg_output.csv"; 
     }; 
} 

object regulator_configuration:2049 { 
     name feeder_reg_cfg; 
     Control OUTPUT_VOLTAGE; 
     band_center 14975.0; 
     band_width 240; 
     connect_type WYE_WYE; 
     time_delay 30; 
     raise_taps 16; 
     lower_taps 16; 
     regulation 0.10; 
     tap_pos_A 0; 
     tap_pos_B 0; 
     tap_pos_C 0; 
} 

object capacitor:2042 { 
     name R2-25-00-1_cap_1; 
     phases ABCN; 
     pt_phase B; 
     parent R2-25-00-1_node_35; 
     phases_connected ABC; 
     control VOLT; 
     voltage_set_high 14500; 
     voltage_set_low 13500; 
     capacitor_A 0.4 MVAr; 
     capacitor_B 0.4 MVAr; 
     capacitor_C 0.4 MVAr; 
     control_level INDIVIDUAL; 
     time_delay 30.0; 
     dwell_time 30.0; 
     cap_nominal_voltage 14380; 
     nominal_voltage 14376.02; 
     // object recorder { 
          // property "switchA,switchB,switchC,voltage_A.real,voltage_A.imag,voltage_B.real,voltage_B.imag,voltage_C.real,voltage_C.imag"; 
          // file R2-25.00-1_capacitor1.csv; 
          // interval 60; 
          // limit 1440; 
     // }; 
} 

object capacitor:2043 { 
     name R2-25-00-1_cap_2; 
     phases ABCN; 
     pt_phase B; 
     parent R2-25-00-1_node_104; 
     phases_connected ABC; 
     control VOLT; 
     voltage_set_high 14500; 
     voltage_set_low 13500; 
     capacitor_A 0.4 MVAr; 
     capacitor_B 0.4 MVAr; 
     capacitor_C 0.4 MVAr; 
     control_level INDIVIDUAL; 
     time_delay 30.0; 
     dwell_time 30.0; 
     cap_nominal_voltage 14380; 
     nominal_voltage 14376.02; 
     // object recorder { 
          // property "switchA,switchB,switchC,voltage_A.real,voltage_A.imag,voltage_B.real,voltage_B.imag,voltage_C.real,voltage_C.imag"; 
          // file R2-25.00-1_capacitor2.csv; 
          // interval 60; 
          // limit 1440; 
     // }; 
} 

object capacitor:2044 { 
     name R2-25-00-1_cap_3; 
     phases ABCN; 
     pt_phase B; 
     parent R2-25-00-1_node_164; 
     phases_connected ABC; 
     control VOLT; 
     voltage_set_high 14500; 
     voltage_set_low 13500; 
     capacitor_A 0.4 MVAr; 
     capacitor_B 0.4 MVAr; 
     capacitor_C 0.4 MVAr; 
     control_level INDIVIDUAL; 
     time_delay 30.0; 
     dwell_time 30.0; 
     cap_nominal_voltage 14380; 
     nominal_voltage 14376.02; 
     // object recorder { 
          // property "switchA,switchB,switchC,voltage_A.real,voltage_A.imag,voltage_B.real,voltage_B.imag,voltage_C.real,voltage_C.imag"; 
          // file R2-25.00-1_capacitor3.csv; 
          // interval 60; 
          // limit 1440; 
     // }; 
} 

object capacitor:2045 { 
     name R2-25-00-1_cap_4; 
     phases ABCN; 
     pt_phase B; 
     parent R2-25-00-1_node_265; 
     phases_connected ABC; 
     control VOLT; 
     voltage_set_high 14500; 
     voltage_set_low 13500; 
     capacitor_A 0.3 MVAr; 
     capacitor_B 0.3 MVAr; 
     capacitor_C 0.3 MVAr; 
     control_level INDIVIDUAL; 
     time_delay 30.0; 
     dwell_time 30.0; 
     cap_nominal_voltage 14380; 
     nominal_voltage 14376.02; 
     // object recorder { 
          // property "switchA,switchB,switchC,voltage_A.real,voltage_A.imag,voltage_B.real,voltage_B.imag,voltage_C.real,voltage_C.imag"; 
          // file R2-25.00-1_capacitor4.csv; 
          // interval 60; 
          // limit 1440; 
     // }; 
} 

object capacitor:2046 { 
     name R2-25-00-1_cap_5; 
     phases ABCN; 
     pt_phase B; 
     parent R2-25-00-1_node_268; 
     phases_connected ABC; 
     control MANUAL; 
     capacitor_A 0.4 MVAr; 
     capacitor_B 0.4 MVAr; 
     capacitor_C 0.4 MVAr; 
     control_level INDIVIDUAL; 
     time_delay 30.0; 
     dwell_time 30.0; 
     cap_nominal_voltage 14380; 
     nominal_voltage 14376.02; 
     // object recorder { 
          // property "switchA,switchB,switchC,voltage_A.real,voltage_A.imag,voltage_B.real,voltage_B.imag,voltage_C.real,voltage_C.imag"; 
          // file R2-25.00-1_capacitor5.csv; 
          // interval 60; 
          // limit 1440; 
     // }; 
} 

object fuse:1946 { 
     name R2-25-00-1_fuse_1; 
     phases ABCN; 
     from R2-25-00-1_node_241; 
     to R2-25-00-1_node_11; 
     current_limit 650; 
     status CLOSED; 
} 

object fuse:1947 { 
     name R2-25-00-1_fuse_2; 
     phases ABCN; 
     from R2-25-00-1_node_18; 
     to R2-25-00-1_node_12; 
     current_limit 800; 
     status CLOSED; 
} 

object fuse:1948 { 
     name R2-25-00-1_fuse_3; 
     phases ABCN; 
     from R2-25-00-1_node_128; 
     to R2-25-00-1_node_13; 
     current_limit 500; 
     status CLOSED; 
} 

object fuse:1949 { 
     name R2-25-00-1_fuse_4; 
     phases AN; 
     from R2-25-00-1_node_284; 
     to R2-25-00-1_node_16; 
     current_limit 400; 
     status CLOSED; 
} 

object fuse:1950 { 
     name R2-25-00-1_fuse_5; 
     phases BN; 
     from R2-25-00-1_node_191; 
     to R2-25-00-1_node_17; 
     current_limit 1000; 
     status CLOSED; 
} 

object fuse:1951 { 
     name R2-25-00-1_fuse_6; 
     phases ABCN; 
     from R2-25-00-1_node_134; 
     to R2-25-00-1_node_20; 
     current_limit 2000; 
     status CLOSED; 
} 

object fuse:1952 { 
     name R2-25-00-1_fuse_7; 
     phases AN; 
     from R2-25-00-1_node_236; 
     to R2-25-00-1_node_34; 
     current_limit 500; 
     status CLOSED; 
} 

object fuse:1953 { 
     name R2-25-00-1_fuse_8; 
     phases ABCN; 
     from R2-25-00-1_node_141; 
     to R2-25-00-1_node_41; 
     current_limit 650; 
     status CLOSED; 
} 

object fuse:1954 { 
     name R2-25-00-1_fuse_9; 
     phases CN; 
     from R2-25-00-1_node_48; 
     to R2-25-00-1_node_319; 
     current_limit 500; 
     status CLOSED; 
} 

object fuse:1955 { 
     name R2-25-00-1_fuse_10; 
     phases CN; 
     from R2-25-00-1_node_237; 
     to R2-25-00-1_node_49; 
     current_limit 500; 
     status CLOSED; 
} 

object fuse:1956 { 
     name R2-25-00-1_fuse_11; 
     phases ABCN; 
     from R2-25-00-1_node_248; 
     to R2-25-00-1_node_50; 
     current_limit 1000; 
     status CLOSED; 
} 

object fuse:1957 { 
     name R2-25-00-1_fuse_12; 
     phases CN; 
     from R2-25-00-1_node_107; 
     to R2-25-00-1_node_52; 
     current_limit 500; 
     status CLOSED; 
} 

object fuse:1958 { 
     name R2-25-00-1_fuse_13; 
     phases ABCN; 
     from R2-25-00-1_node_108; 
     to R2-25-00-1_node_61; 
     current_limit 650; 
     status CLOSED; 
} 

object fuse:1959 { 
     name R2-25-00-1_fuse_14; 
     phases BN; 
     from R2-25-00-1_node_175; 
     to R2-25-00-1_node_65; 
     current_limit 650; 
     status CLOSED; 
} 

object fuse:1960 { 
     name R2-25-00-1_fuse_15; 
     phases AN; 
     from R2-25-00-1_node_66; 
     to R2-25-00-1_node_320; 
     current_limit 400; 
     status CLOSED; 
} 

object fuse:1961 { 
     name R2-25-00-1_fuse_16; 
     phases BN; 
     from R2-25-00-1_node_45; 
     to R2-25-00-1_node_72; 
     current_limit 500; 
     status CLOSED; 
} 

object fuse:1962 { 
     name R2-25-00-1_fuse_17; 
     phases BN; 
     from R2-25-00-1_node_17; 
     to R2-25-00-1_node_77; 
     current_limit 500; 
     status CLOSED; 
} 

object fuse:1963 { 
     name R2-25-00-1_fuse_18; 
     phases ABCN; 
     from R2-25-00-1_node_287; 
     to R2-25-00-1_node_87; 
     current_limit 500; 
     status CLOSED; 
} 

object fuse:1964 { 
     name R2-25-00-1_fuse_19; 
     phases ABCN; 
     from R2-25-00-1_node_113; 
     to R2-25-00-1_node_101; 
     current_limit 1000; 
     status CLOSED; 
} 

object fuse:1965 { 
     name R2-25-00-1_fuse_20; 
     phases ABCN; 
     from R2-25-00-1_node_223; 
     to R2-25-00-1_node_103; 
     current_limit 1000; 
     status CLOSED; 
} 

object fuse:1966 { 
     name R2-25-00-1_fuse_21; 
     phases ABCN; 
     from R2-25-00-1_node_249; 
     to R2-25-00-1_node_118; 
     current_limit 1000; 
     status CLOSED; 
} 

object fuse:1967 { 
     name R2-25-00-1_fuse_22; 
     phases ABCN; 
     from R2-25-00-1_node_222; 
     to R2-25-00-1_node_119; 
     current_limit 1000; 
     status CLOSED; 
} 

object fuse:1968 { 
     name R2-25-00-1_fuse_23; 
     phases BN; 
     from R2-25-00-1_node_149; 
     to R2-25-00-1_node_124; 
     current_limit 500; 
     status CLOSED; 
} 

object fuse:1969 { 
     name R2-25-00-1_fuse_24; 
     phases CN; 
     from R2-25-00-1_node_31; 
     to R2-25-00-1_node_125; 
     current_limit 400; 
     status CLOSED; 
} 

object fuse:1970 { 
     name R2-25-00-1_fuse_25; 
     phases BN; 
     from R2-25-00-1_node_206; 
     to R2-25-00-1_node_126; 
     current_limit 500; 
     status CLOSED; 
} 

object fuse:1971 { 
     name R2-25-00-1_fuse_26; 
     phases CN; 
     from R2-25-00-1_node_262; 
     to R2-25-00-1_node_132; 
     current_limit 500; 
     status CLOSED; 
} 

object fuse:1972 { 
     name R2-25-00-1_fuse_27; 
     phases CN; 
     from R2-25-00-1_node_228; 
     to R2-25-00-1_node_142; 
     current_limit 500; 
     status CLOSED; 
} 

object fuse:1973 { 
     name R2-25-00-1_fuse_28; 
     phases ABCN; 
     from R2-25-00-1_node_145; 
     to R2-25-00-1_node_146; 
     current_limit 650; 
     status CLOSED; 
} 

object fuse:1974 { 
     name R2-25-00-1_fuse_29; 
     phases AN; 
     from R2-25-00-1_node_68; 
     to R2-25-00-1_node_147; 
     current_limit 500; 
     status CLOSED; 
} 

object fuse:1975 { 
     name R2-25-00-1_fuse_30; 
     phases CN; 
     from R2-25-00-1_node_94; 
     to R2-25-00-1_node_148; 
     current_limit 800; 
     status CLOSED; 
} 

object fuse:1976 { 
     name R2-25-00-1_fuse_31; 
     phases CN; 
     from R2-25-00-1_node_92; 
     to R2-25-00-1_node_155; 
     current_limit 650; 
     status CLOSED; 
} 

object fuse:1977 { 
     name R2-25-00-1_fuse_32; 
     phases AN; 
     from R2-25-00-1_node_70; 
     to R2-25-00-1_node_158; 
     current_limit 400; 
     status CLOSED; 
} 

object fuse:1978 { 
     name R2-25-00-1_fuse_33; 
     phases CN; 
     from R2-25-00-1_node_92; 
     to R2-25-00-1_node_177; 
     current_limit 650; 
     status CLOSED; 
} 

object fuse:1979 { 
     name R2-25-00-1_fuse_34; 
     phases CN; 
     from R2-25-00-1_node_117; 
     to R2-25-00-1_node_181; 
     current_limit 650; 
     status CLOSED; 
} 

object fuse:1980 { 
     name R2-25-00-1_fuse_35; 
     phases AN; 
     from R2-25-00-1_node_163; 
     to R2-25-00-1_node_192; 
     current_limit 500; 
     status CLOSED; 
} 

object fuse:1981 { 
     name R2-25-00-1_fuse_36; 
     phases ABCN; 
     from R2-25-00-1_node_105; 
     to R2-25-00-1_node_193; 
     current_limit 1000; 
     status CLOSED; 
} 

object fuse:1982 { 
     name R2-25-00-1_fuse_37; 
     phases CN; 
     from R2-25-00-1_node_62; 
     to R2-25-00-1_node_194; 
     current_limit 400; 
     status CLOSED; 
} 

object fuse:1983 { 
     name R2-25-00-1_fuse_38; 
     phases CN; 
     from R2-25-00-1_node_306; 
     to R2-25-00-1_node_195; 
     current_limit 500; 
     status CLOSED; 
} 

object fuse:1984 { 
     name R2-25-00-1_fuse_39; 
     phases BN; 
     from R2-25-00-1_node_27; 
     to R2-25-00-1_node_196; 
     current_limit 1000; 
     status CLOSED; 
} 

object fuse:1985 { 
     name R2-25-00-1_fuse_40; 
     phases ABCN; 
     from R2-25-00-1_node_234; 
     to R2-25-00-1_node_201; 
     current_limit 500; 
     status CLOSED; 
} 

object fuse:1986 { 
     name R2-25-00-1_fuse_41; 
     phases BN; 
     from R2-25-00-1_node_63; 
     to R2-25-00-1_node_215; 
     current_limit 500; 
     status CLOSED; 
} 

object fuse:1987 { 
     name R2-25-00-1_fuse_42; 
     phases CN; 
     from R2-25-00-1_node_200; 
     to R2-25-00-1_node_231; 
     current_limit 1000; 
     status CLOSED; 
} 

object fuse:1988 { 
     name R2-25-00-1_fuse_43; 
     phases ABCN; 
     from R2-25-00-1_node_204; 
     to R2-25-00-1_node_232; 
     current_limit 1000; 
     status CLOSED; 
} 

object fuse:1989 { 
     name R2-25-00-1_fuse_44; 
     phases AN; 
     from R2-25-00-1_node_36; 
     to R2-25-00-1_node_238; 
     current_limit 500; 
     status CLOSED; 
} 

object fuse:1990 { 
     name R2-25-00-1_fuse_45; 
     phases BN; 
     from R2-25-00-1_node_89; 
     to R2-25-00-1_node_245; 
     current_limit 1000; 
     status CLOSED; 
} 

object fuse:1991 { 
     name R2-25-00-1_fuse_46; 
     phases BN; 
     from R2-25-00-1_node_217; 
     to R2-25-00-1_node_247; 
     current_limit 650; 
     status CLOSED; 
} 

object fuse:1992 { 
     name R2-25-00-1_fuse_47; 
     phases AN; 
     from R2-25-00-1_node_70; 
     to R2-25-00-1_node_254; 
     current_limit 400; 
     status CLOSED; 
} 

object fuse:1993 { 
     name R2-25-00-1_fuse_48; 
     phases CN; 
     from R2-25-00-1_node_227; 
     to R2-25-00-1_node_259; 
     current_limit 650; 
     status CLOSED; 
} 

object fuse:1994 { 
     name R2-25-00-1_fuse_49; 
     phases ABCN; 
     from R2-25-00-1_node_296; 
     to R2-25-00-1_node_267; 
     current_limit 1000; 
     status CLOSED; 
} 

object fuse:1995 { 
     name R2-25-00-1_fuse_50; 
     phases AN; 
     from R2-25-00-1_node_217; 
     to R2-25-00-1_node_270; 
     current_limit 650; 
     status CLOSED; 
} 

object fuse:1996 { 
     name R2-25-00-1_fuse_51; 
     phases BN; 
     from R2-25-00-1_node_129; 
     to R2-25-00-1_node_292; 
     current_limit 650; 
     status CLOSED; 
} 

object fuse:1997 { 
     name R2-25-00-1_fuse_52; 
     phases ABCN; 
     from R2-25-00-1_node_188; 
     to R2-25-00-1_node_299; 
     current_limit 1000; 
     status CLOSED; 
} 

object fuse:1998 { 
     name R2-25-00-1_fuse_53; 
     phases CN; 
     from R2-25-00-1_node_49; 
     to R2-25-00-1_node_301; 
     current_limit 400; 
     status CLOSED; 
} 

object fuse:1999 { 
     name R2-25-00-1_fuse_54; 
     phases ABCN; 
     from R2-25-00-1_node_293; 
     to R2-25-00-1_node_303; 
     current_limit 500; 
     status CLOSED; 
} 

object fuse:2000 { 
     name R2-25-00-1_fuse_55; 
     phases CN; 
     from R2-25-00-1_node_42; 
     to R2-25-00-1_node_307; 
     current_limit 300; 
     status CLOSED; 
} 

object fuse:2001 { 
     name R2-25-00-1_fuse_56; 
     phases BN; 
     from R2-25-00-1_node_242; 
     to R2-25-00-1_node_308; 
     current_limit 500; 
     status CLOSED; 
} 

object fuse:2002 { 
     name R2-25-00-1_fuse_57; 
     phases AN; 
     from R2-25-00-1_node_116; 
     to R2-25-00-1_node_321; 
     current_limit 500; 
     status CLOSED; 
} 

object line_configuration:21 { 
     conductor_A underground_line_conductor:2; 
     conductor_N underground_line_conductor:2; 
     spacing line_spacing:14; 
} 

object line_configuration:22 { 
     conductor_A overhead_line_conductor:3; 
     conductor_B overhead_line_conductor:3; 
     conductor_C overhead_line_conductor:3; 
     conductor_N overhead_line_conductor:3; 
     spacing line_spacing:15; 
} 

object line_configuration:23 { 
     conductor_A underground_line_conductor:4; 
     conductor_N underground_line_conductor:4; 
     spacing line_spacing:14; 
} 

object line_configuration:24 { 
     conductor_A overhead_line_conductor:3; 
     conductor_B overhead_line_conductor:3; 
     conductor_C overhead_line_conductor:3; 
     conductor_N overhead_line_conductor:3; 
     spacing line_spacing:15; 
} 

object line_configuration:25 { 
     conductor_A underground_line_conductor:5; 
     conductor_B underground_line_conductor:5; 
     conductor_C underground_line_conductor:5; 
     conductor_N underground_line_conductor:5; 
     spacing line_spacing:16; 
} 

object line_configuration:26 { 
     conductor_A overhead_line_conductor:6; 
     conductor_B overhead_line_conductor:6; 
     conductor_C overhead_line_conductor:6; 
     conductor_N overhead_line_conductor:6; 
     spacing line_spacing:16; 
} 

object line_configuration:27 { 
     conductor_B overhead_line_conductor:7; 
     conductor_N overhead_line_conductor:7; 
     spacing line_spacing:17; 
} 

object line_configuration:28 { 
     conductor_C underground_line_conductor:2; 
     conductor_N underground_line_conductor:2; 
     spacing line_spacing:18; 
} 

object line_configuration:29 { 
     conductor_A overhead_line_conductor:7; 
     conductor_B overhead_line_conductor:7; 
     conductor_C overhead_line_conductor:7; 
     conductor_N overhead_line_conductor:7; 
     spacing line_spacing:15; 
} 

object line_configuration:30 { 
     conductor_B underground_line_conductor:4; 
     conductor_N underground_line_conductor:4; 
     spacing line_spacing:19; 
} 

object line_configuration:31 { 
     conductor_C overhead_line_conductor:7; 
     conductor_N overhead_line_conductor:7; 
     spacing line_spacing:20; 
} 

object line_configuration:32 { 
     conductor_B underground_line_conductor:2; 
     conductor_N underground_line_conductor:2; 
     spacing line_spacing:19; 
} 

object line_configuration:33 { 
     conductor_A underground_line_conductor:2; 
     conductor_N underground_line_conductor:2; 
     spacing line_spacing:14; 
} 

object line_configuration:34 { 
     conductor_A overhead_line_conductor:8; 
     conductor_B overhead_line_conductor:8; 
     conductor_C overhead_line_conductor:8; 
     conductor_N overhead_line_conductor:8; 
     spacing line_spacing:15; 
} 

object line_configuration:35 { 
     conductor_A overhead_line_conductor:8; 
     conductor_B overhead_line_conductor:8; 
     conductor_C overhead_line_conductor:8; 
     conductor_N overhead_line_conductor:8; 
     spacing line_spacing:15; 
} 

object line_configuration:36 { 
     conductor_A underground_line_conductor:4; 
     conductor_B underground_line_conductor:4; 
     conductor_C underground_line_conductor:4; 
     conductor_N underground_line_conductor:4; 
     spacing line_spacing:16; 
} 

object line_configuration:37 { 
     conductor_C underground_line_conductor:4; 
     conductor_N underground_line_conductor:4; 
     spacing line_spacing:18; 
} 

object line_configuration:38 { 
     conductor_C overhead_line_conductor:9; 
     conductor_N overhead_line_conductor:9; 
     spacing line_spacing:20; 
} 

object line_configuration:39 { 
     conductor_C underground_line_conductor:2; 
     conductor_N underground_line_conductor:2; 
     spacing line_spacing:18; 
} 

object line_configuration:40 { 
     conductor_A overhead_line_conductor:10; 
     conductor_B overhead_line_conductor:10; 
     conductor_C overhead_line_conductor:10; 
     conductor_N overhead_line_conductor:10; 
     spacing line_spacing:15; 
} 

object line_configuration:41 { 
     conductor_A overhead_line_conductor:7; 
     conductor_B overhead_line_conductor:7; 
     conductor_C overhead_line_conductor:7; 
     conductor_N overhead_line_conductor:7; 
     spacing line_spacing:15; 
} 

object line_configuration:42 { 
     conductor_C overhead_line_conductor:11; 
     conductor_N overhead_line_conductor:11; 
     spacing line_spacing:20; 
} 

object line_configuration:43 { 
     conductor_C overhead_line_conductor:10; 
     conductor_N overhead_line_conductor:10; 
     spacing line_spacing:20; 
} 

object line_configuration:44 { 
     conductor_C overhead_line_conductor:11; 
     conductor_N overhead_line_conductor:11; 
     spacing line_spacing:20; 
} 

object line_configuration:45 { 
     conductor_B overhead_line_conductor:8; 
     conductor_N overhead_line_conductor:8; 
     spacing line_spacing:17; 
} 

object line_configuration:46 { 
     conductor_A overhead_line_conductor:8; 
     conductor_B overhead_line_conductor:8; 
     conductor_C overhead_line_conductor:8; 
     conductor_N overhead_line_conductor:8; 
     spacing line_spacing:15; 
} 

object line_configuration:47 { 
     conductor_A overhead_line_conductor:6; 
     conductor_B overhead_line_conductor:6; 
     conductor_C overhead_line_conductor:6; 
     conductor_N overhead_line_conductor:6; 
     spacing line_spacing:15; 
} 

object line_configuration:48 { 
     conductor_B overhead_line_conductor:6; 
     conductor_N overhead_line_conductor:6; 
     spacing line_spacing:17; 
} 

object line_configuration:49 { 
     conductor_B overhead_line_conductor:10; 
     conductor_N overhead_line_conductor:10; 
     spacing line_spacing:17; 
} 

object line_configuration:50 { 
     conductor_C overhead_line_conductor:12; 
     conductor_N overhead_line_conductor:12; 
     spacing line_spacing:20; 
} 

object line_configuration:51 { 
     conductor_A overhead_line_conductor:3; 
     conductor_B overhead_line_conductor:3; 
     conductor_C overhead_line_conductor:3; 
     conductor_N overhead_line_conductor:3; 
     spacing line_spacing:15; 
} 

object line_configuration:52 { 
     conductor_A overhead_line_conductor:6; 
     conductor_B overhead_line_conductor:6; 
     conductor_C overhead_line_conductor:6; 
     conductor_N overhead_line_conductor:6; 
     spacing line_spacing:15; 
} 

object line_configuration:53 { 
     conductor_A overhead_line_conductor:13; 
     conductor_B overhead_line_conductor:13; 
     conductor_C overhead_line_conductor:13; 
     conductor_N overhead_line_conductor:13; 
     spacing line_spacing:15; 
} 

object line_spacing:14 { 
     distance_AN 6.0 in; 
} 

object line_spacing:15 { 
     distance_AB 59.0 in; 
     distance_BC 59.0 in; 
     distance_AC 59.0 in; 
     distance_AN 59.0 in; 
     distance_BN 59.0 in; 
     distance_CN 59.0 in; 
} 

object line_spacing:16 { 
     distance_AB 6.0 in; 
     distance_BC 6.0 in; 
     distance_AC 6.0 in; 
     distance_AN 6.0 in; 
     distance_BN 6.0 in; 
     distance_CN 6.0 in; 
} 

object line_spacing:17 { 
     distance_BN 53.0 in; 
} 

object line_spacing:18 { 
     distance_CN 6.0 in; 
} 

object line_spacing:19 { 
     distance_BN 6.0 in; 
} 

object line_spacing:20 { 
     distance_CN 53.0 in; 
} 

object load:377 { 
     name R2-25-00-1_load_1; 
     parent R2-25-00-1_meter_1; 
     phases ABCN; 
     voltage_A 14376.02+0.0j; 
     voltage_B -7188.01-12450j; 
     voltage_C -7188.01+12450j; 
     constant_power_A 141703.2458+82991.5943j; 
     constant_power_B 138259.98+84772.568j; 
     constant_power_C 139738.3161+82584.5027j; 
     nominal_voltage 14376.02; 
     load_class C; 
} 

object load:378 { 
     name R2-25-00-1_load_2; 
     parent R2-25-00-1_meter_2; 
     phases ABCN; 
     voltage_A 14376.02+0.0j; 
     voltage_B -7188.01-12450j; 
     voltage_C -7188.01+12450j; 
     constant_power_A 213403.2458+136991.5943j; 
     constant_power_B 209959.98+138772.568j; 
     constant_power_C 211438.3161+136584.5027j; 
     nominal_voltage 14376.02; 
     load_class C; 
} 

object load:379 { 
     name R2-25-00-1_load_3; 
     parent R2-25-00-1_meter_3; 
     phases ABCN; 
     voltage_A 14376.02+0.0j; 
     voltage_B -7188.01-12450j; 
     voltage_C -7188.01+12450j; 
     constant_power_A 25686.7852+6210.3769j; 
     constant_power_B 23792.989+7189.9124j; 
     constant_power_C 24606.0739+5986.4765j; 
     nominal_voltage 14376.02; 
     load_class C; 
} 

object load:380 { 
     name R2-25-00-1_load_4; 
     parent R2-25-00-1_meter_4; 
     phases ABCN; 
     voltage_A 14376.02+0.0j; 
     voltage_B -7188.01-12450j; 
     voltage_C -7188.01+12450j; 
     constant_power_A 23351.6229+5645.7971j; 
     constant_power_B 21629.99+6536.284j; 
     constant_power_C 22369.1581+5442.2514j; 
     nominal_voltage 14376.02; 
     load_class C; 
} 

object load:381 { 
     name R2-25-00-1_load_5; 
     parent R2-25-00-1_meter_5; 
     phases ABCN; 
     voltage_A 14376.02+0.0j; 
     voltage_B -7188.01-12450j; 
     voltage_C -7188.01+12450j; 
     constant_power_A 11675.8114+2822.8986j; 
     constant_power_B 10814.995+3268.142j; 
     constant_power_C 11184.579+2721.1257j; 
     nominal_voltage 14376.02; 
     load_class C; 
} 

object load:382 { 
     name R2-25-00-1_load_6; 
     parent R2-25-00-1_meter_6; 
     phases CN; 
     voltage_C -7188.01+12450j; 
     constant_power_C 4473.8316+1088.4503j; 
     nominal_voltage 14376.02; 
     load_class A; 
} 

object load:383 { 
     name R2-25-00-1_load_7; 
     parent R2-25-00-1_meter_7; 
     phases ABCN; 
     voltage_A 14376.02+0.0j; 
     voltage_B -7188.01-12450j; 
     voltage_C -7188.01+12450j; 
     constant_power_A 70000+52700j; 
     constant_power_B 70000+52700j; 
     constant_power_C 70000+52700j; 
     nominal_voltage 14376.02; 
     load_class C; 
} 

object load:384 { 
     name R2-25-00-1_load_8; 
     parent R2-25-00-1_meter_8; 
     phases CN; 
     voltage_C -7188.01+12450j; 
     constant_power_C 11184.579+2721.1257j; 
     nominal_voltage 14376.02; 
     load_class A; 
} 

object load:385 { 
     name R2-25-00-1_load_9; 
     parent R2-25-00-1_meter_9; 
     phases ABCN; 
     voltage_A 14376.02+0.0j; 
     voltage_B -7188.01-12450j; 
     voltage_C -7188.01+12450j; 
     constant_power_A 59975.8114+38822.8986j; 
     constant_power_B 59114.995+39268.142j; 
     constant_power_C 59484.579+38721.1257j; 
     nominal_voltage 14376.02; 
     load_class C; 
} 

object load:386 { 
     name R2-25-00-1_load_10; 
     parent R2-25-00-1_meter_10; 
     phases CN; 
     voltage_C -7188.01+12450j; 
     constant_power_C 40264.4845+9796.0524j; 
     nominal_voltage 14376.02; 
     load_class A; 
} 

object load:387 { 
     name R2-25-00-1_load_11; 
     parent R2-25-00-1_meter_11; 
     phases ABCN; 
     voltage_A 14376.02+0.0j; 
     voltage_B -7188.01-12450j; 
     voltage_C -7188.01+12450j; 
     constant_power_A 58379.0572+14114.4928j; 
     constant_power_B 54074.975+16340.71j; 
     constant_power_C 55922.8952+13605.6284j; 
     nominal_voltage 14376.02; 
     load_class C; 
} 

object load:388 { 
     name R2-25-00-1_load_12; 
     parent R2-25-00-1_meter_12; 
     phases BN; 
     voltage_B -7188.01-12450j; 
     constant_power_B 10814.995+3268.142j; 
     nominal_voltage 14376.02; 
     load_class C; 
} 

object load:389 { 
     name R2-25-00-1_load_13; 
     parent R2-25-00-1_meter_13; 
     phases ABCN; 
     voltage_A 14376.02+0.0j; 
     voltage_B -7188.01-12450j; 
     voltage_C -7188.01+12450j; 
     constant_power_A 3891.9356+940.9658j; 
     constant_power_B 3604.9969+1089.3802j; 
     constant_power_C 3728.1915+907.0415j; 
     nominal_voltage 14376.02; 
     load_class C; 
} 

object load:390 { 
     name R2-25-00-1_load_14; 
     parent R2-25-00-1_meter_14; 
     phases CN; 
     voltage_C -7188.01+12450j; 
     constant_power_C 4473.8316+1088.4503j; 
     nominal_voltage 14376.02; 
     load_class A; 
} 

object load:391 { 
     name R2-25-00-1_load_15; 
     parent R2-25-00-1_meter_15; 
     phases ABCN; 
     voltage_A 14376.02+0.0j; 
     voltage_B -7188.01-12450j; 
     voltage_C -7188.01+12450j; 
     constant_power_A 35027.4343+8468.6957j; 
     constant_power_B 32444.985+9804.426j; 
     constant_power_C 33553.7371+8163.377j; 
     nominal_voltage 14376.02; 
     load_class C; 
} 

object load:392 { 
     name R2-25-00-1_load_16; 
     parent R2-25-00-1_meter_16; 
     phases ABCN; 
     voltage_A 14376.02+0.0j; 
     voltage_B -7188.01-12450j; 
     voltage_C -7188.01+12450j; 
     constant_power_A 35027.4343+8468.6957j; 
     constant_power_B 32444.985+9804.426j; 
     constant_power_C 33553.7371+8163.377j; 
     nominal_voltage 14376.02; 
     load_class C; 
} 

object load:393 { 
     name R2-25-00-1_load_17; 
     parent R2-25-00-1_meter_17; 
     phases CN; 
     voltage_C -7188.01+12450j; 
     constant_power_C 26842.9897+6530.7016j; 
     nominal_voltage 14376.02; 
     load_class A; 
} 

object load:394 { 
     name R2-25-00-1_load_18; 
     parent R2-25-00-1_meter_18; 
     phases ABCN; 
     voltage_A 14376.02+0.0j; 
     voltage_B -7188.01-12450j; 
     voltage_C -7188.01+12450j; 
     constant_power_A 13232.5707+3199.2813j; 
     constant_power_B 12256.9799+3703.8899j; 
     constant_power_C 12675.8413+3083.9388j; 
     nominal_voltage 14376.02; 
     load_class C; 
} 

object load:395 { 
     name R2-25-00-1_load_19; 
     parent R2-25-00-1_meter_19; 
     phases ABCN; 
     voltage_A 14376.02+0.0j; 
     voltage_B -7188.01-12450j; 
     voltage_C -7188.01+12450j; 
     constant_power_A 23351.6229+5645.7971j; 
     constant_power_B 21629.99+6536.284j; 
     constant_power_C 22369.1581+5442.2514j; 
     nominal_voltage 14376.02; 
     load_class C; 
} 

object load:396 { 
     name R2-25-00-1_load_20; 
     parent R2-25-00-1_meter_20; 
     phases ABCN; 
     voltage_A 14376.02+0.0j; 
     voltage_B -7188.01-12450j; 
     voltage_C -7188.01+12450j; 
     constant_power_A 3113.5513+752.7733j; 
     constant_power_B 2884.0001+871.505j; 
     constant_power_C 2982.5559+725.6339j; 
     nominal_voltage 14376.02; 
     load_class C; 
} 

object load:397 { 
     name R2-25-00-1_load_21; 
     parent R2-25-00-1_meter_21; 
     phases ABCN; 
     voltage_A 14376.02+0.0j; 
     voltage_B -7188.01-12450j; 
     voltage_C -7188.01+12450j; 
     constant_power_A 10897.4084+2634.7016j; 
     constant_power_B 10093.9809+3050.2615j; 
     constant_power_C 10438.9255+2539.7137j; 
     nominal_voltage 14376.02; 
     load_class C; 
} 

object load:398 { 
     name R2-25-00-1_load_22; 
     parent R2-25-00-1_meter_22; 
     phases CN; 
     voltage_C -7188.01+12450j; 
     constant_power_C 20132.2423+4898.0262j; 
     nominal_voltage 14376.02; 
     load_class A;
	// object recorder {
		// property voltage_A,voltage_B,voltage_C;
		// interval 60;
		// limit 1440;
		// file "398.csv";
	// };
	object complex_assert{
		once ONCE_TRUE;
		in '2000-01-01 00:04:00 EST';
		target voltage_A;
		value +0+0j;
		within 1;
	};
	object complex_assert{
		once ONCE_TRUE;
		in '2000-01-01 00:04:00 EST';
		target voltage_B;
		value +0+0j;
		within 1;
	};
	object complex_assert{
		once ONCE_TRUE;
		in '2000-01-01 00:04:00 EST';
		target voltage_C;
		value +280.667+118.715d;
		within 1;
	};		 
} 

object load:399 { 
     name R2-25-00-1_load_23; 
     parent R2-25-00-1_meter_23; 
     phases ABCN; 
     voltage_A 14376.02+0.0j; 
     voltage_B -7188.01-12450j; 
     voltage_C -7188.01+12450j; 
     constant_power_A 35027.4343+8468.6957j; 
     constant_power_B 32444.985+9804.426j; 
     constant_power_C 33553.7371+8163.377j; 
     nominal_voltage 14376.02; 
     load_class C; 
} 

object load:400 { 
     name R2-25-00-1_load_24; 
     parent R2-25-00-1_meter_24; 
     phases ABCN; 
     voltage_A 14376.02+0.0j; 
     voltage_B -7188.01-12450j; 
     voltage_C -7188.01+12450j; 
     constant_power_A 173705.4869+126693.7391j; 
     constant_power_B 173188.997+126960.8852j; 
     constant_power_C 173410.7474+126632.6754j; 
     nominal_voltage 14376.02; 
     load_class C; 
} 

object load:401 { 
     name R2-25-00-1_load_25; 
     parent R2-25-00-1_meter_25; 
     phases ABCN; 
     voltage_A 14376.02+0.0j; 
     voltage_B -7188.01-12450j; 
     voltage_C -7188.01+12450j; 
     constant_power_A 4670.3246+1129.1594j; 
     constant_power_B 4325.998+1307.2568j; 
     constant_power_C 4473.8316+1088.4503j; 
     nominal_voltage 14376.02; 
     load_class C; 
} 

object load:402 { 
     name R2-25-00-1_load_26; 
     parent R2-25-00-1_meter_26; 
     phases ABCN; 
     voltage_A 14376.02+0.0j; 
     voltage_B -7188.01-12450j; 
     voltage_C -7188.01+12450j; 
     constant_power_A 7783.8899+1881.9361j; 
     constant_power_B 7210.0111+2178.7657j; 
     constant_power_C 7456.4009+1814.0874j; 
     nominal_voltage 14376.02; 
     load_class C; 
} 

object load:403 { 
     name R2-25-00-1_load_27; 
     parent R2-25-00-1_meter_27; 
     phases ABCN; 
     voltage_A 14376.02+0.0j; 
     voltage_B -7188.01-12450j; 
     voltage_C -7188.01+12450j; 
     constant_power_A 10576.3694+5937.2023j; 
     constant_power_B 10290.5783+6085.0231j; 
     constant_power_C 10413.2802+5903.4137j; 
     nominal_voltage 14376.02; 
     load_class C; 
} 

object load:404 { 
     name R2-25-00-1_load_28; 
     parent R2-25-00-1_meter_28; 
     phases ABCN; 
     voltage_A 14376.02+0.0j; 
     voltage_B -7188.01-12450j; 
     voltage_C -7188.01+12450j; 
     constant_power_A 11675.8114+2822.8986j; 
     constant_power_B 10814.995+3268.142j; 
     constant_power_C 11184.579+2721.1257j; 
     nominal_voltage 14376.02; 
     load_class C; 
} 

object load:405 { 
     name R2-25-00-1_load_29; 
     parent R2-25-00-1_meter_29; 
     phases CN; 
     voltage_C -7188.01+12450j; 
     constant_power_C 38027.5687+9251.8273j; 
     nominal_voltage 14376.02; 
     load_class A; 
} 

object load:406 { 
     name R2-25-00-1_load_30; 
     parent R2-25-00-1_meter_30; 
     phases ABCN; 
     voltage_A 14376.02+0.0j; 
     voltage_B -7188.01-12450j; 
     voltage_C -7188.01+12450j; 
     constant_power_A 98027.4343+55468.6957j; 
     constant_power_B 95444.985+56804.426j; 
     constant_power_C 96553.7371+55163.377j; 
     nominal_voltage 14376.02; 
     load_class C; 
} 

object load:407 { 
     name R2-25-00-1_load_31; 
     parent R2-25-00-1_meter_31; 
     phases ABCN; 
     voltage_A 14376.02+0.0j; 
     voltage_B -7188.01-12450j; 
     voltage_C -7188.01+12450j; 
     constant_power_A 35027.4343+8468.6957j; 
     constant_power_B 32444.985+9804.426j; 
     constant_power_C 33553.7371+8163.377j; 
     nominal_voltage 14376.02; 
     load_class C; 
} 

object load:408 { 
     name R2-25-00-1_load_32; 
     parent R2-25-00-1_meter_32; 
     phases AN; 
     voltage_A 14376.02+0.0j; 
     constant_power_A 35027.4343+8468.6957j; 
     nominal_voltage 14376.02; 
     load_class A; 
} 

object load:409 { 
     name R2-25-00-1_load_33; 
     parent R2-25-00-1_meter_33; 
     phases CN; 
     voltage_C -7188.01+12450j; 
     constant_power_C 35790.6529+8707.6022j; 
     nominal_voltage 14376.02; 
     load_class A; 
} 

object load:410 { 
     name R2-25-00-1_load_34; 
     parent R2-25-00-1_meter_34; 
     phases ABCN; 
     voltage_A 14376.02+0.0j; 
     voltage_B -7188.01-12450j; 
     voltage_C -7188.01+12450j; 
     constant_power_A 11675.8114+2822.8986j; 
     constant_power_B 10814.995+3268.142j; 
     constant_power_C 11184.579+2721.1257j; 
     nominal_voltage 14376.02; 
     load_class C; 
} 

object load:411 { 
     name R2-25-00-1_load_35; 
     parent R2-25-00-1_meter_35; 
     phases CN; 
     voltage_C -7188.01+12450j; 
     constant_power_C 11184.579+2721.1257j; 
     nominal_voltage 14376.02; 
     load_class A; 
} 

object load:412 { 
     name R2-25-00-1_load_36; 
     parent R2-25-00-1_meter_36; 
     phases ABCN; 
     voltage_A 14376.02+0.0j; 
     voltage_B -7188.01-12450j; 
     voltage_C -7188.01+12450j; 
     constant_power_A 258300+194000j; 
     constant_power_B 258300+194000j; 
     constant_power_C 258300+194000j; 
     nominal_voltage 14376.02; 
     load_class C; 
} 

object load:413 { 
     name R2-25-00-1_load_37; 
     parent R2-25-00-1_meter_37; 
     phases ABCN; 
     voltage_A 14376.02+0.0j; 
     voltage_B -7188.01-12450j; 
     voltage_C -7188.01+12450j; 
     constant_power_A 161000+121000j; 
     constant_power_B 161000+121000j; 
     constant_power_C 161000+121000j; 
     nominal_voltage 14376.02; 
     load_class C; 
} 

object load:414 { 
     name R2-25-00-1_load_38; 
     parent R2-25-00-1_meter_38; 
     phases ABCN; 
     voltage_A 14376.02+0.0j; 
     voltage_B -7188.01-12450j; 
     voltage_C -7188.01+12450j; 
     constant_power_A 7783.8899+1881.9361j; 
     constant_power_B 7210.0111+2178.7657j; 
     constant_power_C 7456.4009+1814.0874j; 
     nominal_voltage 14376.02; 
     load_class A; 
} 

object load:415 { 
     name R2-25-00-1_load_39; 
     parent R2-25-00-1_meter_39; 
     phases CN; 
     voltage_C -7188.01+12450j; 
     constant_power_C 11184.579+2721.1257j; 
     nominal_voltage 14376.02; 
     load_class A; 
} 

object load:416 { 
     name R2-25-00-1_load_40; 
     parent R2-25-00-1_meter_40; 
     phases ABCN; 
     voltage_A 14376.02+0.0j; 
     voltage_B -7188.01-12450j; 
     voltage_C -7188.01+12450j; 
     constant_power_A 50000+37700j; 
     constant_power_B 50000+37700j; 
     constant_power_C 50000+37700j; 
     nominal_voltage 14376.02; 
     load_class C; 
} 

object load:417 { 
     name R2-25-00-1_load_41; 
     parent R2-25-00-1_meter_41; 
     phases CN; 
     voltage_C -7188.01+12450j; 
     constant_power_C 4473.8316+1088.4503j; 
     nominal_voltage 14376.02; 
     load_class A; 
} 

object load:418 { 
     name R2-25-00-1_load_42; 
     parent R2-25-00-1_meter_42; 
     phases CN; 
     voltage_C -7188.01+12450j; 
     constant_power_C 29079.9055+7074.9268j; 
     nominal_voltage 14376.02; 
     load_class A; 
} 

object load:419 { 
     name R2-25-00-1_load_43; 
     parent R2-25-00-1_meter_43; 
     phases ABCN; 
     voltage_A 14376.02+0.0j; 
     voltage_B -7188.01-12450j; 
     voltage_C -7188.01+12450j; 
     constant_power_A 11675.8114+2822.8986j; 
     constant_power_B 10814.995+3268.142j; 
     constant_power_C 11184.579+2721.1257j; 
     nominal_voltage 14376.02; 
     load_class C; 
} 

object load:420 { 
     name R2-25-00-1_load_44; 
     parent R2-25-00-1_meter_44; 
     phases ABCN; 
     voltage_A 14376.02+0.0j; 
     voltage_B -7188.01-12450j; 
     voltage_C -7188.01+12450j; 
     constant_power_A 222700+167000j; 
     constant_power_B 222700+167000j; 
     constant_power_C 222700+167000j; 
     nominal_voltage 14376.02; 
     load_class A; 
} 

object load:421 { 
     name R2-25-00-1_load_45; 
     parent R2-25-00-1_meter_45; 
     phases ABCN; 
     voltage_A 14376.02+0.0j; 
     voltage_B -7188.01-12450j; 
     voltage_C -7188.01+12450j; 
     constant_power_A 23351.6229+5645.7971j; 
     constant_power_B 21629.99+6536.284j; 
     constant_power_C 22369.1581+5442.2514j; 
     nominal_voltage 14376.02; 
     load_class C; 
} 

object load:422 { 
     name R2-25-00-1_load_46; 
     parent R2-25-00-1_meter_46; 
     phases ABCN; 
     voltage_A 14376.02+0.0j; 
     voltage_B -7188.01-12450j; 
     voltage_C -7188.01+12450j; 
     constant_power_A 46703.2458+11291.5943j; 
     constant_power_B 43259.98+13072.568j; 
     constant_power_C 44738.3161+10884.5027j; 
     nominal_voltage 14376.02; 
     load_class C; 
} 

object load:423 { 
     name R2-25-00-1_load_47; 
     parent R2-25-00-1_meter_47; 
     phases CN; 
     voltage_C -7188.01+12450j; 
     constant_power_C 26842.9897+6530.7016j; 
     nominal_voltage 14376.02; 
     load_class A; 
} 

object load:424 { 
     name R2-25-00-1_load_48; 
     parent R2-25-00-1_meter_48; 
     phases ABCN; 
     voltage_A 14376.02+0.0j; 
     voltage_B -7188.01-12450j; 
     voltage_C -7188.01+12450j; 
     constant_power_A 7783.8899+1881.9361j; 
     constant_power_B 7210.0111+2178.7657j; 
     constant_power_C 7456.4009+1814.0874j; 
     nominal_voltage 14376.02; 
     load_class C; 
} 

object load:425 { 
     name R2-25-00-1_load_49; 
     parent R2-25-00-1_meter_49; 
     phases ABCN; 
     voltage_A 14376.02+0.0j; 
     voltage_B -7188.01-12450j; 
     voltage_C -7188.01+12450j; 
     constant_power_A 14010.9737+3387.4783j; 
     constant_power_B 12977.994+3921.7704j; 
     constant_power_C 13421.4948+3265.3508j; 
     nominal_voltage 14376.02; 
     load_class C; 
} 

object load:426 { 
     name R2-25-00-1_load_50; 
     parent R2-25-00-1_meter_50; 
     phases CN; 
     voltage_C -7188.01+12450j; 
     constant_power_C 17895.3265+4353.8011j; 
     nominal_voltage 14376.02; 
     load_class A; 
} 

object load:427 { 
     name R2-25-00-1_load_51; 
     parent R2-25-00-1_meter_51; 
     phases ABCN; 
     voltage_A 14376.02+0.0j; 
     voltage_B -7188.01-12450j; 
     voltage_C -7188.01+12450j; 
     constant_power_A 233516.2289+56457.9714j; 
     constant_power_B 216299.9001+65362.84j; 
     constant_power_C 223691.5807+54422.5136j; 
     nominal_voltage 14376.02; 
     load_class C; 
} 

object load:428 { 
     name R2-25-00-1_load_52; 
     parent R2-25-00-1_meter_52; 
     phases CN; 
     voltage_C -7188.01+12450j; 
     constant_power_C 24606.0739+5986.4765j; 
     nominal_voltage 14376.02; 
     load_class A; 
} 

object load:429 { 
     name R2-25-00-1_load_53; 
     parent R2-25-00-1_meter_53; 
     phases ABCN; 
     voltage_A 14376.02+0.0j; 
     voltage_B -7188.01-12450j; 
     voltage_C -7188.01+12450j; 
     constant_power_A 59157.6003+14302.7237j; 
     constant_power_B 54796.1189+16558.6297j; 
     constant_power_C 56668.6829+13787.0731j; 
     nominal_voltage 14376.02; 
     load_class C; 
} 

object load:430 { 
     name R2-25-00-1_load_54; 
     parent R2-25-00-1_meter_54; 
     phases ABCN; 
     voltage_A 14376.02+0.0j; 
     voltage_B -7188.01-12450j; 
     voltage_C -7188.01+12450j; 
     constant_power_A 55000+41000j; 
     constant_power_B 55000+41000j; 
     constant_power_C 55000+41000j; 
     nominal_voltage 14376.02; 
     load_class A; 
} 

object load:431 { 
     name R2-25-00-1_load_55; 
     parent R2-25-00-1_meter_55; 
     phases CN; 
     voltage_C -7188.01+12450j; 
     constant_power_C 11184.579+2721.1257j; 
     nominal_voltage 14376.02; 
     load_class A; 
} 

object load:432 { 
     name R2-25-00-1_load_56; 
     parent R2-25-00-1_meter_56; 
     phases ABCN; 
     voltage_A 14376.02+0.0j; 
     voltage_B -7188.01-12450j; 
     voltage_C -7188.01+12450j; 
     constant_power_A 49700+37000j; 
     constant_power_B 49700+37000j; 
     constant_power_C 49700+37000j; 
     nominal_voltage 14376.02; 
     load_class C; 
} 

object load:433 { 
     name R2-25-00-1_load_57; 
     parent R2-25-00-1_meter_57; 
     phases CN; 
     voltage_C -7188.01+12450j; 
     constant_power_C 31316.8213+7619.1519j; 
     nominal_voltage 14376.02; 
     load_class A; 
} 

object load:434 { 
     name R2-25-00-1_load_58; 
     parent R2-25-00-1_meter_58; 
     phases CN; 
     voltage_C -7188.01+12450j; 
     constant_power_C 11184.579+2721.1257j; 
     nominal_voltage 14376.02; 
     load_class C; 
} 

object load:435 { 
     name R2-25-00-1_load_59; 
     parent R2-25-00-1_meter_59; 
     phases ABCN; 
     voltage_A 14376.02+0.0j; 
     voltage_B -7188.01-12450j; 
     voltage_C -7188.01+12450j; 
     constant_power_A 589000+365000j; 
     constant_power_B 589000+365000j; 
     constant_power_C 589000+365000j; 
     nominal_voltage 14376.02; 
     load_class C; 
	 		// object recorder {
		// property voltage_A,voltage_B,voltage_C;
		// interval 60;
		// limit 1440;
		// file "435.csv";
	// };
	object complex_assert{
		once ONCE_TRUE;
		in '2000-01-01 00:04:00 EST';
		target voltage_A;
		value +281.828-5.36756j;
		within 1;
	};
	object complex_assert{
		once ONCE_TRUE;
		in '2000-01-01 00:04:00 EST';
		target voltage_B;
		value -143.67-244.498j;
		within 1;
	};
	object complex_assert{
		once ONCE_TRUE;
		in '2000-01-01 00:04:00 EST';
		target voltage_C;
		value -136.945+245.231j;
		within 1;
	};	
} 

object load:436 { 
     name R2-25-00-1_load_60; 
     parent R2-25-00-1_meter_60; 
     phases CN; 
     voltage_C -7188.01+12450j; 
     constant_power_C 20132.2423+4898.0262j; 
     nominal_voltage 14376.02; 
     load_class A;

} 

object load:437 { 
     name R2-25-00-1_load_61; 
     parent R2-25-00-1_meter_61; 
     phases ABCN; 
     voltage_A 14376.02+0.0j; 
     voltage_B -7188.01-12450j; 
     voltage_C -7188.01+12450j; 
     constant_power_A 18335.1623+12564.5797j; 
     constant_power_B 18162.999+12653.6284j; 
     constant_power_C 18236.9158+12544.2251j; 
     nominal_voltage 14376.02; 
     load_class C; 
} 

object load:438 { 
     name R2-25-00-1_load_62; 
     parent R2-25-00-1_meter_62; 
     phases ABCN; 
     voltage_A 14376.02+0.0j; 
     voltage_B -7188.01-12450j; 
     voltage_C -7188.01+12450j; 
     constant_power_A 31135.5128+7527.7333j; 
     constant_power_B 28840.0011+8715.0497j; 
     constant_power_C 29825.559+7256.3388j; 
     nominal_voltage 14376.02; 
     load_class C; 
} 

object load:439 { 
     name R2-25-00-1_load_63; 
     parent R2-25-00-1_meter_63; 
     phases CN; 
     voltage_C -7188.01+12450j; 
     constant_power_C 6710.7474+1632.6754j; 
     nominal_voltage 14376.02; 
     load_class A; 
} 

object load:440 { 
     name R2-25-00-1_load_64; 
     parent R2-25-00-1_meter_64; 
     phases CN; 
     voltage_C -7188.01+12450j; 
     constant_power_C 6710.7474+1632.6754j; 
     nominal_voltage 14376.02; 
     load_class A; 
} 

object load:441 { 
     name R2-25-00-1_load_65; 
     parent R2-25-00-1_meter_65; 
     phases ABCN; 
     voltage_A 14376.02+0.0j; 
     voltage_B -7188.01-12450j; 
     voltage_C -7188.01+12450j; 
     constant_power_A 7799.442+1885.6962j; 
     constant_power_B 7224.4167+2183.1189j; 
     constant_power_C 7471.2988+1817.712j; 
     nominal_voltage 14376.02; 
     load_class C; 
} 

object load:442 { 
     name R2-25-00-1_load_66; 
     parent R2-25-00-1_meter_66; 
     phases ABCN; 
     voltage_A 14376.02+0.0j; 
     voltage_B -7188.01-12450j; 
     voltage_C -7188.01+12450j; 
     constant_power_A 23351.6229+5645.7971j; 
     constant_power_B 21629.99+6536.284j; 
     constant_power_C 22369.1581+5442.2514j; 
     nominal_voltage 14376.02; 
     load_class C; 
} 

object load:443 { 
     name R2-25-00-1_load_67; 
     parent R2-25-00-1_meter_67; 
     phases ABCN; 
     voltage_A 14376.02+0.0j; 
     voltage_B -7188.01-12450j; 
     voltage_C -7188.01+12450j; 
     constant_power_A 6227.0839+1505.5421j; 
     constant_power_B 5767.9829+1743.0047j; 
     constant_power_C 5965.0939+1451.2634j; 
     nominal_voltage 14376.02; 
     load_class A; 
} 

object load:444 { 
     name R2-25-00-1_load_68; 
     parent R2-25-00-1_meter_68; 
     phases ABCN; 
     voltage_A 14376.02+0.0j; 
     voltage_B -7188.01-12450j; 
     voltage_C -7188.01+12450j; 
     constant_power_A 226217.0186+163195.5212j; 
     constant_power_B 225242.5743+163699.5367j; 
     constant_power_C 225660.9435+163080.3143j; 
     nominal_voltage 14376.02; 
     load_class A; 
} 

object load:445 { 
     name R2-25-00-1_load_69; 
     parent R2-25-00-1_meter_69; 
     phases ABCN; 
     voltage_A 14376.02+0.0j; 
     voltage_B -7188.01-12450j; 
     voltage_C -7188.01+12450j; 
     constant_power_A 46703.2458+11291.5943j; 
     constant_power_B 43259.98+13072.568j; 
     constant_power_C 44738.3161+10884.5027j; 
     nominal_voltage 14376.02; 
     load_class C; 
} 

object load:446 { 
     name R2-25-00-1_load_70; 
     parent R2-25-00-1_meter_70; 
     phases ABCN; 
     voltage_A 14376.02+0.0j; 
     voltage_B -7188.01-12450j; 
     voltage_C -7188.01+12450j; 
     constant_power_A 19459.7013+4704.8347j; 
     constant_power_B 18025.0061+5446.9077j; 
     constant_power_C 18640.98+4535.2131j; 
     nominal_voltage 14376.02; 
     load_class C; 
} 

object load:447 { 
     name R2-25-00-1_load_71; 
     parent R2-25-00-1_meter_71; 
     phases CN; 
     voltage_C -7188.01+12450j; 
     constant_power_C 22369.1581+5442.2514j; 
     nominal_voltage 14376.02; 
     load_class A; 
} 

object load:448 { 
     name R2-25-00-1_load_72; 
     parent R2-25-00-1_meter_72; 
     phases ABCN; 
     voltage_A 14376.02+0.0j; 
     voltage_B -7188.01-12450j; 
     voltage_C -7188.01+12450j; 
     constant_power_A 261799.442+192585.6962j; 
     constant_power_B 261224.4167+192883.1189j; 
     constant_power_C 261471.2988+192517.712j; 
     nominal_voltage 14376.02; 
     load_class C; 
} 

object meter:1055 { 
     name R2-25-00-1_meter_1; 
     phases ABCN; 
     voltage_A 14376.02+0.0j; 
     voltage_B -7188.01-12450j; 
     voltage_C -7188.01+12450j; 
     nominal_voltage 14376.02; 
} 

object meter:1056 { 
     name R2-25-00-1_meter_2; 
     phases ABCN; 
     voltage_A 14376.02+0.0j; 
     voltage_B -7188.01-12450j; 
     voltage_C -7188.01+12450j; 
     nominal_voltage 14376.02; 
} 

object meter:1057 { 
     name R2-25-00-1_meter_3; 
     phases ABCN; 
     voltage_A 14376.02+0.0j; 
     voltage_B -7188.01-12450j; 
     voltage_C -7188.01+12450j; 
     nominal_voltage 14376.02; 
} 

object meter:1058 { 
     name R2-25-00-1_meter_4; 
     phases ABCN; 
     voltage_A 14376.02+0.0j; 
     voltage_B -7188.01-12450j; 
     voltage_C -7188.01+12450j; 
     nominal_voltage 14376.02; 
} 

object meter:1059 { 
     name R2-25-00-1_meter_5; 
     phases ABCN; 
     voltage_A 14376.02+0.0j; 
     voltage_B -7188.01-12450j; 
     voltage_C -7188.01+12450j; 
     nominal_voltage 14376.02; 
} 

object meter:1060 { 
     name R2-25-00-1_meter_6; 
     phases CN; 
     voltage_C -7188.01+12450j; 
     nominal_voltage 14376.02; 
} 

object meter:1061 { 
     name R2-25-00-1_meter_7; 
     phases ABCN; 
     voltage_A 14376.02+0.0j; 
     voltage_B -7188.01-12450j; 
     voltage_C -7188.01+12450j; 
     nominal_voltage 14376.02; 
} 

object meter:1062 { 
     name R2-25-00-1_meter_8; 
     phases CN; 
     voltage_C -7188.01+12450j; 
     nominal_voltage 14376.02; 
} 

object meter:1063 { 
     name R2-25-00-1_meter_9; 
     phases ABCN; 
     voltage_A 14376.02+0.0j; 
     voltage_B -7188.01-12450j; 
     voltage_C -7188.01+12450j; 
     nominal_voltage 14376.02; 
} 

object meter:1064 { 
     name R2-25-00-1_meter_10; 
     phases CN; 
     voltage_C -7188.01+12450j; 
     nominal_voltage 14376.02; 
} 

object meter:1065 { 
     name R2-25-00-1_meter_11; 
     phases ABCN; 
     voltage_A 14376.02+0.0j; 
     voltage_B -7188.01-12450j; 
     voltage_C -7188.01+12450j; 
     nominal_voltage 14376.02; 
} 

object meter:1066 { 
     name R2-25-00-1_meter_12; 
     phases BN; 
     voltage_B -7188.01-12450j; 
     nominal_voltage 14376.02;
	// object recorder {
		// property voltage_A,voltage_B,voltage_C;
		// interval 60;
		// limit 1440;
		// file "1066.csv";
	// };
	object complex_assert{
		once ONCE_TRUE;
		in '2000-01-01 00:04:00 EST';
		target voltage_A;
		value +0+0j;
		within 1;
	};
	object complex_assert{
		once ONCE_TRUE;
		in '2000-01-01 00:04:00 EST';
		target voltage_B;
		value -147.841-241.073j;
		within 1;
	};
	object complex_assert{
		once ONCE_TRUE;
		in '2000-01-01 00:04:00 EST';
		target voltage_C;
		value +0+0j;
		within 1;
	};		 
} 

object meter:1067 { 
     name R2-25-00-1_meter_13; 
     phases ABCN; 
     voltage_A 14376.02+0.0j; 
     voltage_B -7188.01-12450j; 
     voltage_C -7188.01+12450j; 
     nominal_voltage 14376.02; 
} 

object meter:1068 { 
     name R2-25-00-1_meter_14; 
     phases CN; 
     voltage_C -7188.01+12450j; 
     nominal_voltage 14376.02; 
} 

object meter:1069 { 
     name R2-25-00-1_meter_15; 
     phases ABCN; 
     voltage_A 14376.02+0.0j; 
     voltage_B -7188.01-12450j; 
     voltage_C -7188.01+12450j; 
     nominal_voltage 14376.02; 
} 

object meter:1070 { 
     name R2-25-00-1_meter_16; 
     phases ABCN; 
     voltage_A 14376.02+0.0j; 
     voltage_B -7188.01-12450j; 
     voltage_C -7188.01+12450j; 
     nominal_voltage 14376.02; 
} 

object meter:1071 { 
     name R2-25-00-1_meter_17; 
     phases CN; 
     voltage_C -7188.01+12450j; 
     nominal_voltage 14376.02; 
} 

object meter:1072 { 
     name R2-25-00-1_meter_18; 
     phases ABCN; 
     voltage_A 14376.02+0.0j; 
     voltage_B -7188.01-12450j; 
     voltage_C -7188.01+12450j; 
     nominal_voltage 14376.02; 
} 

object meter:1073 { 
     name R2-25-00-1_meter_19; 
     phases ABCN; 
     voltage_A 14376.02+0.0j; 
     voltage_B -7188.01-12450j; 
     voltage_C -7188.01+12450j; 
     nominal_voltage 14376.02; 
} 

object meter:1074 { 
     name R2-25-00-1_meter_20; 
     phases ABCN; 
     voltage_A 14376.02+0.0j; 
     voltage_B -7188.01-12450j; 
     voltage_C -7188.01+12450j; 
     nominal_voltage 14376.02; 
} 

object meter:1075 { 
     name R2-25-00-1_meter_21; 
     phases ABCN; 
     voltage_A 14376.02+0.0j; 
     voltage_B -7188.01-12450j; 
     voltage_C -7188.01+12450j; 
     nominal_voltage 14376.02; 
} 

object meter:1076 { 
     name R2-25-00-1_meter_22; 
     phases CN; 
     voltage_C -7188.01+12450j; 
     nominal_voltage 14376.02; 
} 

object meter:1077 { 
     name R2-25-00-1_meter_23; 
     phases ABCN; 
     voltage_A 14376.02+0.0j; 
     voltage_B -7188.01-12450j; 
     voltage_C -7188.01+12450j; 
     nominal_voltage 14376.02; 
} 

object meter:1078 { 
     name R2-25-00-1_meter_24; 
     phases ABCN; 
     voltage_A 14376.02+0.0j; 
     voltage_B -7188.01-12450j; 
     voltage_C -7188.01+12450j; 
     nominal_voltage 14376.02; 
} 

object meter:1079 { 
     name R2-25-00-1_meter_25; 
     phases ABCN; 
     voltage_A 14376.02+0.0j; 
     voltage_B -7188.01-12450j; 
     voltage_C -7188.01+12450j; 
     nominal_voltage 14376.02; 
} 

object meter:1080 { 
     name R2-25-00-1_meter_26; 
     phases ABCN; 
     voltage_A 14376.02+0.0j; 
     voltage_B -7188.01-12450j; 
     voltage_C -7188.01+12450j; 
     nominal_voltage 14376.02; 
} 

object meter:1081 { 
     name R2-25-00-1_meter_27; 
     phases ABCN; 
     voltage_A 14376.02+0.0j; 
     voltage_B -7188.01-12450j; 
     voltage_C -7188.01+12450j; 
     nominal_voltage 14376.02; 
} 

object meter:1082 { 
     name R2-25-00-1_meter_28; 
     phases ABCN; 
     voltage_A 14376.02+0.0j; 
     voltage_B -7188.01-12450j; 
     voltage_C -7188.01+12450j; 
     nominal_voltage 14376.02; 
} 

object meter:1083 { 
     name R2-25-00-1_meter_29; 
     phases CN; 
     voltage_C -7188.01+12450j; 
     nominal_voltage 14376.02; 
} 

object meter:1084 { 
     name R2-25-00-1_meter_30; 
     phases ABCN; 
     voltage_A 14376.02+0.0j; 
     voltage_B -7188.01-12450j; 
     voltage_C -7188.01+12450j; 
     nominal_voltage 14376.02; 
} 

object meter:1085 { 
     name R2-25-00-1_meter_31; 
     phases ABCN; 
     voltage_A 14376.02+0.0j; 
     voltage_B -7188.01-12450j; 
     voltage_C -7188.01+12450j; 
     nominal_voltage 14376.02; 
} 

object meter:1086 { 
     name R2-25-00-1_meter_32; 
     phases AN; 
     voltage_A 14376.02+0.0j; 
     nominal_voltage 14376.02; 
} 

object meter:1087 { 
     name R2-25-00-1_meter_33; 
     phases CN; 
     voltage_C -7188.01+12450j; 
     nominal_voltage 14376.02; 
} 

object meter:1088 { 
     name R2-25-00-1_meter_34; 
     phases ABCN; 
     voltage_A 14376.02+0.0j; 
     voltage_B -7188.01-12450j; 
     voltage_C -7188.01+12450j; 
     nominal_voltage 14376.02; 
} 

object meter:1089 { 
     name R2-25-00-1_meter_35; 
     phases CN; 
     voltage_C -7188.01+12450j; 
     nominal_voltage 14376.02; 
} 

object meter:1090 { 
     name R2-25-00-1_meter_36; 
     phases ABCN; 
     voltage_A 14376.02+0.0j; 
     voltage_B -7188.01-12450j; 
     voltage_C -7188.01+12450j; 
     nominal_voltage 14376.02; 
} 

object meter:1091 { 
     name R2-25-00-1_meter_37; 
     phases ABCN; 
     voltage_A 14376.02+0.0j; 
     voltage_B -7188.01-12450j; 
     voltage_C -7188.01+12450j; 
     nominal_voltage 14376.02; 
} 

object meter:1092 { 
     name R2-25-00-1_meter_38; 
     phases ABCN; 
     voltage_A 14376.02+0.0j; 
     voltage_B -7188.01-12450j; 
     voltage_C -7188.01+12450j; 
     nominal_voltage 14376.02; 
} 

object meter:1093 { 
     name R2-25-00-1_meter_39; 
     phases CN; 
     voltage_C -7188.01+12450j; 
     nominal_voltage 14376.02; 
} 

object meter:1094 { 
     name R2-25-00-1_meter_40; 
     phases ABCN; 
     voltage_A 14376.02+0.0j; 
     voltage_B -7188.01-12450j; 
     voltage_C -7188.01+12450j; 
     nominal_voltage 14376.02; 
} 

object meter:1095 { 
     name R2-25-00-1_meter_41; 
     phases CN; 
     voltage_C -7188.01+12450j; 
     nominal_voltage 14376.02; 
} 

object meter:1096 { 
     name R2-25-00-1_meter_42; 
     phases CN; 
     voltage_C -7188.01+12450j; 
     nominal_voltage 14376.02; 
} 

object meter:1097 { 
     name R2-25-00-1_meter_43; 
     phases ABCN; 
     voltage_A 14376.02+0.0j; 
     voltage_B -7188.01-12450j; 
     voltage_C -7188.01+12450j; 
     nominal_voltage 14376.02; 
} 

object meter:1098 { 
     name R2-25-00-1_meter_44; 
     phases ABCN; 
     voltage_A 14376.02+0.0j; 
     voltage_B -7188.01-12450j; 
     voltage_C -7188.01+12450j; 
     nominal_voltage 14376.02; 
} 

object meter:1099 { 
     name R2-25-00-1_meter_45; 
     phases ABCN; 
     voltage_A 14376.02+0.0j; 
     voltage_B -7188.01-12450j; 
     voltage_C -7188.01+12450j; 
     nominal_voltage 14376.02; 
} 

object meter:1100 { 
     name R2-25-00-1_meter_46; 
     phases ABCN; 
     voltage_A 14376.02+0.0j; 
     voltage_B -7188.01-12450j; 
     voltage_C -7188.01+12450j; 
     nominal_voltage 14376.02; 
} 

object meter:1101 { 
     name R2-25-00-1_meter_47; 
     phases CN; 
     voltage_C -7188.01+12450j; 
     nominal_voltage 14376.02; 
} 

object meter:1102 { 
     name R2-25-00-1_meter_48; 
     phases ABCN; 
     voltage_A 14376.02+0.0j; 
     voltage_B -7188.01-12450j; 
     voltage_C -7188.01+12450j; 
     nominal_voltage 14376.02; 
} 

object meter:1103 { 
     name R2-25-00-1_meter_49; 
     phases ABCN; 
     voltage_A 14376.02+0.0j; 
     voltage_B -7188.01-12450j; 
     voltage_C -7188.01+12450j; 
     nominal_voltage 14376.02; 
} 

object meter:1104 { 
     name R2-25-00-1_meter_50; 
     phases CN; 
     voltage_C -7188.01+12450j; 
     nominal_voltage 14376.02; 
} 

object meter:1105 { 
     name R2-25-00-1_meter_51; 
     phases ABCN; 
     voltage_A 14376.02+0.0j; 
     voltage_B -7188.01-12450j; 
     voltage_C -7188.01+12450j; 
     nominal_voltage 14376.02; 
} 

object meter:1106 { 
     name R2-25-00-1_meter_52; 
     phases CN; 
     voltage_C -7188.01+12450j; 
     nominal_voltage 14376.02; 
} 

object meter:1107 { 
     name R2-25-00-1_meter_53; 
     phases ABCN; 
     voltage_A 14376.02+0.0j; 
     voltage_B -7188.01-12450j; 
     voltage_C -7188.01+12450j; 
     nominal_voltage 14376.02; 
} 

object meter:1108 { 
     name R2-25-00-1_meter_54; 
     phases ABCN; 
     voltage_A 14376.02+0.0j; 
     voltage_B -7188.01-12450j; 
     voltage_C -7188.01+12450j; 
     nominal_voltage 14376.02; 
} 

object meter:1109 { 
     name R2-25-00-1_meter_55; 
     phases CN; 
     voltage_C -7188.01+12450j; 
     nominal_voltage 14376.02; 
} 

object meter:1110 { 
     name R2-25-00-1_meter_56; 
     phases ABCN; 
     voltage_A 14376.02+0.0j; 
     voltage_B -7188.01-12450j; 
     voltage_C -7188.01+12450j; 
     nominal_voltage 14376.02; 
} 

object meter:1111 { 
     name R2-25-00-1_meter_57; 
     phases CN; 
     voltage_C -7188.01+12450j; 
     nominal_voltage 14376.02; 
} 

object meter:1112 { 
     name R2-25-00-1_meter_58; 
     phases CN; 
     voltage_C -7188.01+12450j; 
     nominal_voltage 14376.02; 
} 

object meter:1113 { 
     name R2-25-00-1_meter_59; 
     phases ABCN; 
     voltage_A 14376.02+0.0j; 
     voltage_B -7188.01-12450j; 
     voltage_C -7188.01+12450j; 
     nominal_voltage 14376.02; 
} 

object meter:1114 { 
     name R2-25-00-1_meter_60; 
     phases CN; 
     voltage_C -7188.01+12450j; 
     nominal_voltage 14376.02; 
} 

object meter:1115 { 
     name R2-25-00-1_meter_61; 
     phases ABCN; 
     voltage_A 14376.02+0.0j; 
     voltage_B -7188.01-12450j; 
     voltage_C -7188.01+12450j; 
     nominal_voltage 14376.02; 
} 

object meter:1116 { 
     name R2-25-00-1_meter_62; 
     phases ABCN; 
     voltage_A 14376.02+0.0j; 
     voltage_B -7188.01-12450j; 
     voltage_C -7188.01+12450j; 
     nominal_voltage 14376.02; 
} 

object meter:1117 { 
     name R2-25-00-1_meter_63; 
     phases CN; 
     voltage_C -7188.01+12450j; 
     nominal_voltage 14376.02; 
} 

object meter:1118 { 
     name R2-25-00-1_meter_64; 
     phases CN; 
...